Input Parameters:
   integrator           = md
   nsteps               = 5000
<<<<<<< HEAD
   init_step            = 0
   ns_type              = Grid
   nstlist              = 10
   ndelta               = 2
   nstcomm              = 10
   comm_mode            = Linear
=======
   init-step            = 0
   cutoff-scheme        = Group
   ns_type              = Grid
   nstlist              = 10
   ndelta               = 2
   nstcomm              = 50
   comm-mode            = Linear
>>>>>>> 3cc6b8257abcf917f3003572a7c0b5238e7ae282
   nstlog               = 10
   nstxout              = 0
   nstvout              = 0
   nstfout              = 0
<<<<<<< HEAD
   nstcalcenergy        = 10
   nstenergy            = 10
   nstxtcout            = 10
   init_t               = 0
   delta_t              = 0.002
   xtcprec              = 1000
   nkx                  = 25
   nky                  = 25
   nkz                  = 25
   pme_order            = 4
   ewald_rtol           = 1e-05
   ewald_geometry       = 0
   epsilon_surface      = 0
   optimize_fft         = FALSE
=======
   nstcalcenergy        = 50
   nstenergy            = 50
   nstxtcout            = 50
   init-t               = 0
   delta-t              = 0.002
   xtcprec              = 1000
   fourierspacing       = 0.12
   nkx                  = 25
   nky                  = 25
   nkz                  = 25
   pme-order            = 4
   ewald-rtol           = 1e-05
   ewald-geometry       = 0
   epsilon-surface      = 0
   optimize-fft         = FALSE
>>>>>>> 3cc6b8257abcf917f3003572a7c0b5238e7ae282
   ePBC                 = xyz
   bPeriodicMols        = FALSE
   bContinuation        = FALSE
   bShakeSOR            = FALSE
   etc                  = V-rescale
<<<<<<< HEAD
=======
   bPrintNHChains       = FALSE
>>>>>>> 3cc6b8257abcf917f3003572a7c0b5238e7ae282
   nsttcouple           = 10
   epc                  = No
   epctype              = Isotropic
   nstpcouple           = -1
<<<<<<< HEAD
   tau_p                = 1
   ref_p (3x3):
      ref_p[    0]={ 0.00000e+00,  0.00000e+00,  0.00000e+00}
      ref_p[    1]={ 0.00000e+00,  0.00000e+00,  0.00000e+00}
      ref_p[    2]={ 0.00000e+00,  0.00000e+00,  0.00000e+00}
=======
   tau-p                = 1
   ref-p (3x3):
      ref-p[    0]={ 0.00000e+00,  0.00000e+00,  0.00000e+00}
      ref-p[    1]={ 0.00000e+00,  0.00000e+00,  0.00000e+00}
      ref-p[    2]={ 0.00000e+00,  0.00000e+00,  0.00000e+00}
>>>>>>> 3cc6b8257abcf917f3003572a7c0b5238e7ae282
   compress (3x3):
      compress[    0]={ 0.00000e+00,  0.00000e+00,  0.00000e+00}
      compress[    1]={ 0.00000e+00,  0.00000e+00,  0.00000e+00}
      compress[    2]={ 0.00000e+00,  0.00000e+00,  0.00000e+00}
<<<<<<< HEAD
   refcoord_scaling     = No
   posres_com (3):
      posres_com[0]= 0.00000e+00
      posres_com[1]= 0.00000e+00
      posres_com[2]= 0.00000e+00
   posres_comB (3):
      posres_comB[0]= 0.00000e+00
      posres_comB[1]= 0.00000e+00
      posres_comB[2]= 0.00000e+00
   andersen_seed        = 815131
   rlist                = 1
   rlistlong            = 1
   rtpi                 = 0.05
   coulombtype          = PME-User
   rcoulomb_switch      = 0
   rcoulomb             = 1
   vdwtype              = Cut-off
   rvdw_switch          = 0
   rvdw                 = 1
   epsilon_r            = 1
   epsilon_rf           = 1
   tabext               = 1
   implicit_solvent     = No
   gb_algorithm         = Still
   gb_epsilon_solvent   = 80
   nstgbradii           = 1
   rgbradii             = 1
   gb_saltconc          = 0
   gb_obc_alpha         = 1
   gb_obc_beta          = 0.8
   gb_obc_gamma         = 4.85
   gb_dielectric_offset = 0.009
   sa_algorithm         = Ace-approximation
   sa_surface_tension   = 2.05016
   DispCorr             = No
   free_energy          = no
   init_lambda          = 0
   delta_lambda         = 0
   n_foreign_lambda     = 0
   sc_alpha             = 0
   sc_power             = 0
   sc_sigma             = 0.3
   sc_sigma_min         = 0.3
   nstdhdl              = 10
   separate_dhdl_file   = yes
   dhdl_derivatives     = yes
   dh_hist_size         = 0
   dh_hist_spacing      = 0.1
   nwall                = 0
   wall_type            = 9-3
   wall_atomtype[0]     = -1
   wall_atomtype[1]     = -1
   wall_density[0]      = 0
   wall_density[1]      = 0
   wall_ewald_zfac      = 3
   pull                 = no
   disre                = No
   disre_weighting      = Conservative
   disre_mixed          = FALSE
   dr_fc                = 1000
   dr_tau               = 0
   nstdisreout          = 100
   orires_fc            = 0
   orires_tau           = 0
   nstorireout          = 100
   dihre-fc             = 1000
   em_stepsize          = 0.01
   em_tol               = 10
   niter                = 20
   fc_stepsize          = 0
   nstcgsteep           = 1000
   nbfgscorr            = 10
   ConstAlg             = Lincs
   shake_tol            = 0.0001
   lincs_order          = 4
   lincs_warnangle      = 30
   lincs_iter           = 1
   bd_fric              = 0
   ld_seed              = 1993
   cos_accel            = 0
=======
   refcoord-scaling     = No
   posres-com (3):
      posres-com[0]= 0.00000e+00
      posres-com[1]= 0.00000e+00
      posres-com[2]= 0.00000e+00
   posres-comB (3):
      posres-comB[0]= 0.00000e+00
      posres-comB[1]= 0.00000e+00
      posres-comB[2]= 0.00000e+00
   verlet-buffer-drift  = 0.005
   rlist                = 1
   rlistlong            = 1
   nstcalclr            = 0
   rtpi                 = 0.05
   coulombtype          = PME-User
   coulomb-modifier     = None
   rcoulomb-switch      = 0
   rcoulomb             = 1
   vdwtype              = Cut-off
   vdw-modifier         = None
   rvdw-switch          = 0
   rvdw                 = 1
   epsilon-r            = 1
   epsilon-rf           = inf
   tabext               = 1
   implicit-solvent     = No
   gb-algorithm         = Still
   gb-epsilon-solvent   = 80
   nstgbradii           = 1
   rgbradii             = 1
   gb-saltconc          = 0
   gb-obc-alpha         = 1
   gb-obc-beta          = 0.8
   gb-obc-gamma         = 4.85
   gb-dielectric-offset = 0.009
   sa-algorithm         = Ace-approximation
   sa-surface-tension   = 2.05016
   DispCorr             = No
   bSimTemp             = FALSE
   free-energy          = no
   nwall                = 0
   wall-type            = 9-3
   wall-atomtype[0]     = -1
   wall-atomtype[1]     = -1
   wall-density[0]      = 0
   wall-density[1]      = 0
   wall-ewald-zfac      = 3
   pull                 = no
   rotation             = FALSE
   disre                = No
   disre-weighting      = Conservative
   disre-mixed          = FALSE
   dr-fc                = 1000
   dr-tau               = 0
   nstdisreout          = 100
   orires-fc            = 0
   orires-tau           = 0
   nstorireout          = 100
   dihre-fc             = 0
   em-stepsize          = 0.01
   em-tol               = 10
   niter                = 20
   fc-stepsize          = 0
   nstcgsteep           = 1000
   nbfgscorr            = 10
   ConstAlg             = Lincs
   shake-tol            = 0.0001
   lincs-order          = 4
   lincs-warnangle      = 30
   lincs-iter           = 1
   bd-fric              = 0
   ld-seed              = 1993
   cos-accel            = 0
>>>>>>> 3cc6b8257abcf917f3003572a7c0b5238e7ae282
   deform (3x3):
      deform[    0]={ 0.00000e+00,  0.00000e+00,  0.00000e+00}
      deform[    1]={ 0.00000e+00,  0.00000e+00,  0.00000e+00}
      deform[    2]={ 0.00000e+00,  0.00000e+00,  0.00000e+00}
<<<<<<< HEAD
=======
   adress               = FALSE
>>>>>>> 3cc6b8257abcf917f3003572a7c0b5238e7ae282
   userint1             = 0
   userint2             = 0
   userint3             = 0
   userint4             = 0
   userreal1            = 0
   userreal2            = 0
   userreal3            = 0
   userreal4            = 0
grpopts:
<<<<<<< HEAD
   nrdf:           9
   ref_t:         300
   tau_t:         0.5
anneal:          No
ann_npoints:           0
   acc:	           0           0           0
   nfreeze:           N           N           N
   energygrp_flags[  0]: 0
=======
   nrdf:          15
   ref-t:         300
   tau-t:         0.5
anneal:          No
ann-npoints:           0
   acc:	           0           0           0
   nfreeze:           N           N           N
   energygrp-flags[  0]: 2 2
   energygrp-flags[  1]: 2 0
>>>>>>> 3cc6b8257abcf917f3003572a7c0b5238e7ae282
   efield-x:
      n = 0
   efield-xt:
      n = 0
   efield-y:
      n = 0
   efield-yt:
      n = 0
   efield-z:
      n = 0
   efield-zt:
      n = 0
   bQMMM                = FALSE
   QMconstraints        = 0
   QMMMscheme           = 0
   scalefactor          = 1
<<<<<<< HEAD
qm_opts:
   ngQM                 = 0
=======
qm-opts:
   ngQM                 = 0
Using 1 MPI thread

Detecting CPU-specific acceleration.
Present hardware specification:
Vendor: GenuineIntel
Brand:  Intel(R) Core(TM) i5-4590 CPU @ 3.30GHz
Family:  6  Model: 60  Stepping:  3
Features: aes apic avx avx2 clfsh cmov cx8 cx16 f16c fma htt lahf_lm mmx msr nonstop_tsc pcid pclmuldq pdcm pdpe1gb popcnt pse rdrnd rdtscp sse2 sse3 sse4.1 sse4.2 ssse3 tdt x2apic
Acceleration most likely to fit this hardware: AVX_256
Acceleration selected at GROMACS compile time: AVX_256

>>>>>>> 3cc6b8257abcf917f3003572a7c0b5238e7ae282
Table routines are used for coulomb: TRUE
Table routines are used for vdw:     FALSE
Will do PME sum in reciprocal space.

Will do ordinary reciprocal space Ewald sum.
Using a Gaussian width (1/beta) of 0.320163 nm for Ewald
Cut-off's:   NS: 1   Coulomb: 1   LJ: 1
System total charge: 0.000
Read user tables from table.xvg with 6001 data points.
Tabscale = 2000 points/nm
Generating forces for table 2, boundary conditions: V''' at 0, V''' at 3
Generating forces for table 3, boundary conditions: V''' at 0, V''' at 3
Modified table with 4000 data points for Ewald-User.
Tabscale = 2000 points/nm
Generated table with 4000 data points for LJ6.
Tabscale = 2000 points/nm
Generated table with 4000 data points for LJ12.
Tabscale = 2000 points/nm
<<<<<<< HEAD

Enabling SPC-like water optimization for 1 molecules.

Configuring nonbonded kernels...
Configuring standard C nonbonded kernels...
Testing x86_64 SSE2 support... present.

=======
Read user tables from table_G_G.xvg with 6001 data points.
Tabscale = 2000 points/nm
Generating forces for table 2, boundary conditions: V''' at 0, V''' at 3
Generating forces for table 3, boundary conditions: V''' at 0, V''' at 3
Modified table with 4000 data points for Ewald-User.
Tabscale = 2000 points/nm
Generated table with 4000 data points for LJ6.
Tabscale = 2000 points/nm
Generated table with 4000 data points for LJ12.
Tabscale = 2000 points/nm
Read user tables from table_G_Pt.xvg with 6001 data points.
Tabscale = 2000 points/nm
Generating forces for table 2, boundary conditions: V''' at 0, V''' at 3
Generating forces for table 3, boundary conditions: V''' at 0, V''' at 3
Modified table with 4000 data points for Ewald-User.
Tabscale = 2000 points/nm
Generated table with 4000 data points for LJ6.
Tabscale = 2000 points/nm
Generated table with 4000 data points for LJ12.
Tabscale = 2000 points/nm

Enabling SPC-like water optimization for 2 molecules.

Potential shift: LJ r^-12: 0.000 r^-6 0.000, Ewald 0.000e+00
Initialized non-bonded Ewald correction tables, spacing: 6.60e-04 size: 3033
>>>>>>> 3cc6b8257abcf917f3003572a7c0b5238e7ae282

Removing pbc first time

Center of mass motion removal mode is Linear
We have the following groups for center of mass motion removal:
  0:  System

<<<<<<< HEAD
There are: 5 Atoms
Max number of connections per atom is 2
Total number of connections is 4
Max number of graph edges per atom is 2
Total number of graph edges is 4
=======
There are: 8 Atoms
Max number of connections per atom is 2
Total number of connections is 8
Max number of graph edges per atom is 2
Total number of graph edges is 8
>>>>>>> 3cc6b8257abcf917f3003572a7c0b5238e7ae282

Constraining the starting coordinates (step 0)

Constraining the coordinates at t0-dt (step 0)
RMS relative constraint deviation after constraining: 0.00e+00
<<<<<<< HEAD
Initial temperature: 344.498 K

Started mdrun on node 0 Sat Mar 23 16:37:48 2019
=======
Initial temperature: 270.973 K

Started mdrun on node 0 Mon Mar 25 12:38:31 2019
>>>>>>> 3cc6b8257abcf917f3003572a7c0b5238e7ae282

           Step           Time         Lambda
              0        0.00000        0.00000

   Energies (kJ/mol)
        LJ (SR)   Coulomb (SR)   Coul. recip.      Potential    Kinetic En.
   -3.77683e-02   -4.19144e-01   -1.44662e+02   -1.45119e+02    1.33812e+01
   -1.31738e+02   -1.31738e+02    3.57641e+02   -2.54764e+01

   Energies (kJ/mol)
        LJ (SR)   Coulomb (SR)   Coul. recip.      Potential    Kinetic En.
    0.00000e+00   -5.92509e-01   -1.57166e+02   -1.57758e+02    1.68450e+01
   -1.40913e+02   -1.40913e+02    2.70130e+02   -2.86415e+01

	<====  A V E R A G E S  ====>

	Statistics over 5001 steps using 501 frames

   Energies (kJ/mol)
        LJ (SR)   Coulomb (SR)   Coul. recip.      Potential    Kinetic En.
<<<<<<< HEAD
    4.89977e+01   -2.70926e+02   -3.80956e+02   -6.02885e+02    4.71358e+01
   Total Energy  Conserved En.    Temperature Pressure (bar)
   -5.55749e+02   -3.24088e+01    1.25980e+03    2.41395e+00

   Total Virial (kJ/mol)
    1.38430e+01   -2.03655e+00    3.16647e+00
   -2.04894e+00    1.14963e+01    3.18568e-01
    3.16394e+00    3.21879e-01    1.59089e+01

   Pressure (bar)
   -2.47287e-01    1.65437e+00    6.01968e+00
    1.66960e+00    4.51485e-01    3.53790e+00
    6.02279e+00    3.53382e+00    7.03767e+00

   Total Dipole (D)
   -2.50879e-01   -2.53991e+00    1.35449e+01
=======
    2.60157e+00   -1.37536e+03   -4.65932e+02   -1.83869e+03    1.17586e+02
   Total Energy  Conserved En.    Temperature Pressure (bar)
   -1.72111e+03   -1.22373e+02    1.88563e+03    2.82801e+00

   Total Virial (kJ/mol)
    4.77528e+01   -1.39873e+00   -1.23325e+00
   -1.40050e+00    3.98368e+01    3.07333e+00
   -1.23505e+00    3.07264e+00    2.30987e+01

   Pressure (bar)
    1.88985e+00    3.72350e+00    2.04470e+00
    3.72568e+00    3.61893e+00   -5.74722e-01
    2.04691e+00   -5.73870e-01    2.97524e+00

  Epot (kJ/mol)        Coul-SR          LJ-SR
            G-G   -6.23245e+02    0.00000e+00
           G-Pt   -7.75283e+02    0.00000e+00
          Pt-Pt    2.31675e+01    2.60157e+00
>>>>>>> 3cc6b8257abcf917f3003572a7c0b5238e7ae282
